goiania_leste_dss/TR2/CTMT_5001995.dss
! ==============================================================================
! ALIMENTADOR CTMT_5001995 - GOIANIA LESTE-15
! Subestacao: Trafo TR2 (GOL-S-TRF-TR2) | Barra MT: 4629 -> PAC_INI: 84804515001995
! ==============================================================================

! 1. Disjuntor de Saida MT do Alimentador
new line.DJ_5001995 phases=3 bus1=4629 bus2=84804515001995 switch=y r1=1e-4 x1=1e-4 length=0.001 units=km

! 2. Linhas de Media Tensao (MT)
new line.52880053 phases=3 bus1=80479525001995B.1.2.3 bus2=80482495001995.1.2.3 r1=1.551 x1=0.49 length=0.030635 units=km normamps=114.0
new line.52880055 phases=3 bus1=80479975001995.1.2.3 bus2=80479985001995.1.2.3 r1=0.195 x1=0.4 length=0.021496 units=km normamps=419.0
new line.52880056 phases=3 bus1=80480005001995.1.2.3 bus2=80479995001995.1.2.3 r1=0.195 x1=0.4 length=0.024755 units=km normamps=419.0
new line.52880057 phases=3 bus1=80479995001995.1.2.3 bus2=80479985001995B.1.2.3 r1=0.195 x1=0.4 length=0.025582 units=km normamps=419.0
new line.52880058 phases=3 bus1=80480015001995.1.2.3 bus2=80480005001995.1.2.3 r1=0.195 x1=0.4 length=0.026737 units=km normamps=419.0
new line.52880059 phases=3 bus1=80480025001995.1.2.3 bus2=80480015001995.1.2.3 r1=0.195 x1=0.4 length=0.020678 units=km normamps=419.0
new line.52880060 phases=3 bus1=80480035001995.1.2.3 bus2=80480025001995.1.2.3 r1=0.195 x1=0.4 length=0.036495 units=km normamps=419.0
new line.52880061 phases=3 bus1=80480035001995.1.2.3 bus2=80480055001995.1.2.3 r1=0.195 x1=0.4 length=0.022331 units=km normamps=419.0
new line.52880062 phases=3 bus1=80480055001995.1.2.3 bus2=80480065001995.1.2.3 r1=0.195 x1=0.4 length=0.022331 units=km normamps=419.0
new line.52880063 phases=3 bus1=80480065001995.1.2.3 bus2=80479645001995.1.2.3 r1=0.195 x1=0.4 length=0.022331 units=km normamps=419.0
new line.52880064 phases=3 bus1=80479645001995.1.2.3 bus2=80479635001995.1.2.3 r1=0.195 x1=0.4 length=0.038627 units=km normamps=419.0
new line.52880068 phases=3 bus1=80479535001995.1.2.3 bus2=80480125001995.1.2.3 r1=0.195 x1=0.4 length=0.022704 units=km normamps=419.0
new line.52880069 phases=3 bus1=80480135001995.1.2.3 bus2=80480125001995.1.2.3 r1=0.195 x1=0.4 length=0.0034 units=km normamps=419.0
new line.52880070 phases=3 bus1=80480125001995.1.2.3 bus2=80480145001995.1.2.3 r1=0.195 x1=0.4 length=0.034601 units=km normamps=419.0
new line.52880071 phases=3 bus1=80480145001995.1.2.3 bus2=80480195001995.1.2.3 r1=0.195 x1=0.4 length=0.020705 units=km normamps=419.0
new line.52880072 phases=3 bus1=80480195001995.1.2.3 bus2=80480205001995.1.2.3 r1=0.195 x1=0.4 length=0.023533 units=km normamps=419.0
new line.52880073 phases=3 bus1=80480205001995.1.2.3 bus2=80480215001995.1.2.3 r1=0.195 x1=0.4 length=0.030914 units=km normamps=419.0
new line.52880074 phases=3 bus1=80480215001995.1.2.3 bus2=80480225001995.1.2.3 r1=0.195 x1=0.4 length=0.034601 units=km normamps=419.0
new line.52880075 phases=3 bus1=80480245001995.1.2.3 bus2=80480255001995.1.2.3 r1=0.195 x1=0.4 length=0.042548 units=km normamps=419.0
new line.52880076 phases=3 bus1=80480255001995.1.2.3 bus2=80480315001995.1.2.3 r1=0.195 x1=0.4 length=0.031501 units=km normamps=419.0
new line.52880077 phases=3 bus1=80480315001995.1.2.3 bus2=80480325001995.1.2.3 r1=0.195 x1=0.4 length=0.02924 units=km normamps=419.0
new line.52880078 phases=3 bus1=80480325001995.1.2.3 bus2=80480335001995.1.2.3 r1=0.195 x1=0.4 length=0.024392 units=km normamps=419.0
new line.52880079 phases=3 bus1=80480335001995.1.2.3 bus2=80480345001995.1.2.3 r1=0.195 x1=0.4 length=0.032328 units=km normamps=419.0
new line.52880081 phases=3 bus1=80480515001995.1.2.3 bus2=80480525001995B.1.2.3 r1=0.236 x1=0.27 length=0.025048 units=km normamps=456.0
new line.52880082 phases=3 bus1=80480525001995.1.2.3 bus2=80480535001995.1.2.3 r1=0.236 x1=0.27 length=0.048428 units=km normamps=456.0
new line.52880083 phases=3 bus1=80480545001995.1.2.3 bus2=80480535001995.1.2.3 r1=0.486 x1=0.44 length=0.00626 units=km normamps=235.0
new line.52880084 phases=3 bus1=80480535001995.1.2.3 bus2=80480555001995.1.2.3 r1=0.236 x1=0.27 length=0.027058 units=km normamps=456.0
new line.52880085 phases=3 bus1=80480555001995.1.2.3 bus2=80480565001995.1.2.3 r1=0.236 x1=0.27 length=0.015695 units=km normamps=456.0
new line.52880089 phases=3 bus1=80480565001995.1.2.3 bus2=80480765001995.1.2.3 r1=0.236 x1=0.27 length=0.021413 units=km normamps=456.0
new line.52880090 phases=3 bus1=80480775001995.1.2.3 bus2=80480765001995.1.2.3 r1=0.486 x1=0.44 length=0.004308 units=km normamps=235.0
new line.52880091 phases=3 bus1=80480765001995.1.2.3 bus2=80480785001995.1.2.3 r1=0.236 x1=0.27 length=0.024103 units=km normamps=456.0
new line.52880092 phases=3 bus1=80480785001995B.1.2.3 bus2=80480705001995.1.2.3 r1=1.551 x1=0.49 length=0.021385 units=km normamps=114.0
new line.52880093 phases=3 bus1=80480785001995.1.2.3 bus2=80480795001995.1.2.3 r1=0.236 x1=0.27 length=0.025609 units=km normamps=456.0
new line.52880094 phases=3 bus1=80480345001995.1.2.3 bus2=80480355001995.1.2.3 r1=0.195 x1=0.4 length=0.031501 units=km normamps=419.0
new line.52880095 phases=3 bus1=80480355001995.1.2.3 bus2=80480365001995B.1.2.3 r1=0.195 x1=0.4 length=0.02439 units=km normamps=419.0
new line.52880096 phases=3 bus1=80480365001995.1.2.3 bus2=80480115001995.1.2.3 r1=0.236 x1=0.27 length=0.030692 units=km normamps=456.0
new line.52880097 phases=3 bus1=80480795001995.1.2.3 bus2=80480805001995.1.2.3 r1=0.236 x1=0.27 length=0.024336 units=km normamps=456.0
new line.52880098 phases=3 bus1=80480815001995.1.2.3 bus2=80480805001995.1.2.3 r1=0.486 x1=0.44 length=0.006692 units=km normamps=235.0
new line.52880099 phases=3 bus1=80480805001995.1.2.3 bus2=80480825001995B.1.2.3 r1=0.236 x1=0.27 length=0.033195 units=km normamps=456.0
new line.52880103 phases=3 bus1=80481355001995.1.2.3 bus2=80481345001995.1.2.3 r1=1.551 x1=0.49 length=0.033757 units=km normamps=114.0
new line.52880104 phases=3 bus1=80481365001995.1.2.3 bus2=80481355001995.1.2.3 r1=0.975 x1=0.47 length=0.007403 units=km normamps=152.0
new line.52880105 phases=3 bus1=80481405001995.1.2.3 bus2=80481355001995.1.2.3 r1=0.732 x1=0.31 length=0.033669 units=km normamps=225.0
new line.52880106 phases=3 bus1=80481385001995.1.2.3 bus2=80481405001995.1.2.3 r1=0.732 x1=0.31 length=0.009739 units=km normamps=225.0
new line.52880107 phases=3 bus1=80481405001995.1.2.3 bus2=80481375001995.1.2.3 r1=0.236 x1=0.27 length=0.009721 units=km normamps=456.0
new line.52880108 phases=3 bus1=80481395001995.1.2.3 bus2=93441485001995.1.2.3 r1=0.236 x1=0.27 length=0.015249 units=km normamps=456.0
new line.52880127 phases=3 bus1=80481825001995.1.2.3 bus2=80481685001995.1.2.3 r1=0.236 x1=0.27 length=0.040565 units=km normamps=456.0
new line.52880128 phases=3 bus1=80481835001995.1.2.3 bus2=80481825001995.1.2.3 r1=0.236 x1=0.27 length=0.007342 units=km normamps=456.0
new line.52880129 phases=3 bus1=80481845001995.1.2.3 bus2=80481835001995.1.2.3 r1=0.236 x1=0.27 length=0.010593 units=km normamps=456.0
new line.52880130 phases=3 bus1=80481855001995.1.2.3 bus2=80481845001995.1.2.3 r1=0.236 x1=0.27 length=0.014525 units=km normamps=456.0
new line.52880131 phases=3 bus1=80481855001995.1.2.3 bus2=80481865001995.1.2.3 r1=1.551 x1=0.49 length=0.018434 units=km normamps=114.0
new line.52880132 phases=3 bus1=80481875001995.1.2.3 bus2=80481865001995.1.2.3 r1=1.551 x1=0.49 length=0.007158 units=km normamps=114.0
new line.52880133 phases=3 bus1=80481885001995.1.2.3 bus2=80481855001995.1.2.3 r1=0.236 x1=0.27 length=0.044105 units=km normamps=456.0
new line.52880134 phases=3 bus1=80481895001995.1.2.3 bus2=80481885001995.1.2.3 r1=0.236 x1=0.27 length=0.015098 units=km normamps=456.0
new line.52880135 phases=3 bus1=80481905001995.1.2.3 bus2=80481895001995.1.2.3 r1=0.236 x1=0.27 length=0.039788 units=km normamps=456.0
new line.52880136 phases=3 bus1=80481915001995.1.2.3 bus2=80481905001995.1.2.3 r1=0.245 x1=0.42 length=0.007004 units=km normamps=362.0
new line.52880137 phases=3 bus1=80481925001995.1.2.3 bus2=80481935001995.1.2.3 r1=0.732 x1=0.31 length=0.025808 units=km normamps=225.0
new line.52880138 phases=3 bus1=80481945001995.1.2.3 bus2=80481935001995.1.2.3 r1=0.975 x1=0.47 length=0.007946 units=km normamps=152.0
new line.52880139 phases=3 bus1=80481935001995.1.2.3 bus2=80481955001995.1.2.3 r1=0.732 x1=0.31 length=0.008857 units=km normamps=225.0
new line.52880140 phases=3 bus1=80482025001995.1.2.3 bus2=80481905001995.1.2.3 r1=0.236 x1=0.27 length=0.043919 units=km normamps=456.0
new line.52880141 phases=3 bus1=80482035001995.1.2.3 bus2=80482025001995.1.2.3 r1=0.236 x1=0.27 length=0.020812 units=km normamps=456.0
new line.52880142 phases=3 bus1=80482055001995.1.2.3 bus2=80482035001995.1.2.3 r1=0.236 x1=0.27 length=0.024626 units=km normamps=456.0
new line.52880143 phases=3 bus1=80482065001995.1.2.3 bus2=80482055001995.1.2.3 r1=0.975 x1=0.47 length=0.007208 units=km normamps=152.0
new line.52880144 phases=3 bus1=80482075001995.1.2.3 bus2=80482055001995.1.2.3 r1=0.236 x1=0.27 length=0.034068 units=km normamps=456.0
new line.52880145 phases=3 bus1=80481685001995B.1.2.3 bus2=80482085001995.1.2.3 r1=0.732 x1=0.31 length=0.019526 units=km normamps=225.0
new line.52880146 phases=3 bus1=80482085001995.1.2.3 bus2=80481925001995.1.2.3 r1=0.732 x1=0.31 length=0.0254 units=km normamps=225.0
new line.52880147 phases=3 bus1=80481675001995.1.2.3 bus2=80482095001995.1.2.3 r1=0.236 x1=0.27 length=0.02791 units=km normamps=456.0
new line.52880148 phases=3 bus1=80482095001995.1.2.3 bus2=80481735001995.1.2.3 r1=0.236 x1=0.27 length=0.021571 units=km normamps=456.0
new line.52880149 phases=3 bus1=80482105001995.1.2.3 bus2=80482095001995.1.2.3 r1=0.732 x1=0.31 length=0.018625 units=km normamps=225.0
new line.52880150 phases=3 bus1=80480225001995.1.2.3 bus2=80480245001995.1.2.3 r1=0.195 x1=0.4 length=0.030074 units=km normamps=419.0
new line.52880151 phases=3 bus1=80482205001995.1.2.3 bus2=80482215001995.1.2.3 r1=0.975 x1=0.47 length=0.028551 units=km normamps=152.0
new line.52880152 phases=3 bus1=80482565001995.1.2.3 bus2=80482555001995.1.2.3 r1=0.195 x1=0.4 length=0.040959 units=km normamps=419.0
new line.52880153 phases=3 bus1=80482575001995.1.2.3 bus2=80482565001995.1.2.3 r1=0.195 x1=0.4 length=0.03519 units=km normamps=419.0
new line.52880154 phases=3 bus1=80482585001995.1.2.3 bus2=80482575001995.1.2.3 r1=0.195 x1=0.4 length=0.039081 units=km normamps=419.0
new line.52880155 phases=3 bus1=80482595001995.1.2.3 bus2=80482585001995.1.2.3 r1=0.195 x1=0.4 length=0.033219 units=km normamps=419.0
new line.52880157 phases=3 bus1=80482705001995.1.2.3 bus2=80482685001995B.1.2.3 r1=0.975 x1=0.47 length=0.041268 units=km normamps=152.0
new line.52880158 phases=3 bus1=80482715001995.1.2.3 bus2=80482705001995.1.2.3 r1=0.975 x1=0.47 length=0.045604 units=km normamps=152.0
new line.52880159 phases=3 bus1=80482725001995.1.2.3 bus2=80482715001995.1.2.3 r1=0.975 x1=0.47 length=0.028282 units=km normamps=152.0
new line.52880160 phases=3 bus1=80482735001995.1.2.3 bus2=80482725001995.1.2.3 r1=0.975 x1=0.47 length=0.012482 units=km normamps=152.0
new line.52880161 phases=3 bus1=80482745001995.1.2.3 bus2=80482675001995.1.2.3 r1=0.195 x1=0.4 length=0.028259 units=km normamps=419.0
new line.52880162 phases=3 bus1=80482755001995.1.2.3 bus2=80482745001995.1.2.3 r1=0.195 x1=0.4 length=0.03394 units=km normamps=419.0
new line.52880163 phases=3 bus1=80482725001995.1.2.3 bus2=80483085001995.1.2.3 r1=0.975 x1=0.47 length=0.008857 units=km normamps=152.0
new line.52880164 phases=3 bus1=80481145001995.1.2.3 bus2=80483095001995.1.2.3 r1=0.975 x1=0.47 length=0.01232 units=km normamps=152.0
new line.52880167 phases=3 bus1=80479485001995B.1.2.3 bus2=94061645001995.1.2.3 r1=0.195 x1=0.4 length=0.012042 units=km normamps=419.0
new line.52880168 phases=3 bus1=80482815001995.1.2.3 bus2=80482755001995.1.2.3 r1=0.195 x1=0.4 length=0.032442 units=km normamps=419.0
new line.52880169 phases=3 bus1=80482735001995.1.2.3 bus2=80482825001995.1.2.3 r1=0.975 x1=0.47 length=0.025564 units=km normamps=152.0
new line.52880170 phases=3 bus1=80482075001995.1.2.3 bus2=80482865001995B.1.2.3 r1=0.236 x1=0.27 length=0.028346 units=km normamps=456.0
new line.52880171 phases=3 bus1=80479505001995.1.2.3 bus2=80482205001995.1.2.3 r1=0.975 x1=0.47 length=0.014298 units=km normamps=152.0
new line.52880172 phases=3 bus1=80482215001995.1.2.3 bus2=80482225001995.1.2.3 r1=0.975 x1=0.47 length=0.019054 units=km normamps=152.0
new line.52880173 phases=3 bus1=80482225001995.1.2.3 bus2=80482235001995.1.2.3 r1=0.975 x1=0.47 length=0.02008 units=km normamps=152.0
new line.52880174 phases=3 bus1=80482865001995.1.2.3 bus2=80482915001995.1.2.3 r1=0.195 x1=0.4 length=0.026444 units=km normamps=419.0
new line.52880175 phases=3 bus1=80482915001995.1.2.3 bus2=80481125001995.1.2.3 r1=0.195 x1=0.4 length=0.011534 units=km normamps=419.0
new line.52880176 phases=3 bus1=80481115001995B.1.2.3 bus2=80482915001995.1.2.3 r1=0.195 x1=0.4 length=0.020634 units=km normamps=419.0
new line.52880177 phases=3 bus1=80482915001995.1.2.3 bus2=80482555001995.1.2.3 r1=0.195 x1=0.4 length=0.014657 units=km normamps=419.0
new line.52880182 phases=3 bus1=80481375001995.1.2.3 bus2=80481675001995.1.2.3 r1=0.236 x1=0.27 length=0.024723 units=km normamps=456.0
new line.52880183 phases=3 bus1=80481845001995.1.2.3 bus2=80483005001995.1.2.3 r1=0.245 x1=0.42 length=0.008356 units=km normamps=362.0
new line.52880184 phases=3 bus1=80481755001995.1.2.3 bus2=80483015001995.1.2.3 r1=0.245 x1=0.42 length=0.023784 units=km normamps=362.0
new line.52880185 phases=3 bus1=80483015001995.1.2.3 bus2=80481785001995.1.2.3 r1=0.245 x1=0.42 length=0.00409 units=km normamps=362.0
new line.52880186 phases=3 bus1=80481735001995.1.2.3 bus2=80483025001995.1.2.3 r1=0.732 x1=0.31 length=0.019536 units=km normamps=225.0
new line.52880187 phases=3 bus1=80483025001995.1.2.3 bus2=80481745001995.1.2.3 r1=0.975 x1=0.47 length=0.010651 units=km normamps=152.0
new line.52880188 phases=3 bus1=80481715001995.1.2.3 bus2=80483035001995.1.2.3 r1=0.732 x1=0.31 length=0.016926 units=km normamps=225.0
new line.52880189 phases=3 bus1=80483035001995.1.2.3 bus2=80481725001995.1.2.3 r1=0.245 x1=0.42 length=0.008592 units=km normamps=362.0
new line.52880190 phases=3 bus1=80480475001995.1.2.3 bus2=80480465001995.1.2.3 r1=0.975 x1=0.47 length=0.017029 units=km normamps=152.0
new line.52880191 phases=3 bus1=80480465001995.1.2.3 bus2=80483055001995.1.2.3 r1=0.975 x1=0.47 length=0.015372 units=km normamps=152.0
new line.52880192 phases=3 bus1=80483055001995.1.2.3 bus2=80480455001995.1.2.3 r1=0.975 x1=0.47 length=0.012406 units=km normamps=152.0
new line.52880193 phases=3 bus1=80483055001995.1.2.3 bus2=80483065001995.1.2.3 r1=0.975 x1=0.47 length=0.00818 units=km normamps=152.0
new line.52880196 phases=3 bus1=80481345001995.1.2.3 bus2=80481455001995.1.2.3 r1=1.551 x1=0.49 length=0.035787 units=km normamps=114.0
new line.52880197 phases=3 bus1=80481465001995.1.2.3 bus2=80481455001995.1.2.3 r1=0.975 x1=0.47 length=0.003873 units=km normamps=152.0
new line.52880198 phases=3 bus1=80481475001995.1.2.3 bus2=80481455001995.1.2.3 r1=0.975 x1=0.47 length=0.023541 units=km normamps=152.0
new line.52880199 phases=3 bus1=80481485001995.1.2.3 bus2=80481475001995.1.2.3 r1=0.975 x1=0.47 length=0.007158 units=km normamps=152.0
new line.52880203 phases=3 bus1=80481565001995.1.2.3 bus2=80481385001995.1.2.3 r1=0.975 x1=0.47 length=0.022704 units=km normamps=152.0
new line.52880204 phases=3 bus1=80481575001995.1.2.3 bus2=80481565001995.1.2.3 r1=0.975 x1=0.47 length=0.010802 units=km normamps=152.0
new line.52880205 phases=3 bus1=80481585001995.1.2.3 bus2=80481565001995.1.2.3 r1=0.975 x1=0.47 length=0.026656 units=km normamps=152.0
new line.52880206 phases=3 bus1=80481595001995.1.2.3 bus2=80481585001995.1.2.3 r1=0.975 x1=0.47 length=0.022121 units=km normamps=152.0
new line.52880207 phases=3 bus1=80481595001995.1.2.3 bus2=80481605001995.1.2.3 r1=0.975 x1=0.47 length=0.021498 units=km normamps=152.0
new line.52880208 phases=3 bus1=80481615001995.1.2.3 bus2=80481605001995.1.2.3 r1=0.975 x1=0.47 length=0.00746 units=km normamps=152.0
new line.52880209 phases=3 bus1=80481695001995.1.2.3 bus2=80481685001995.1.2.3 r1=0.236 x1=0.27 length=0.029299 units=km normamps=456.0
new line.52880210 phases=3 bus1=80481705001995.1.2.3 bus2=80481695001995.1.2.3 r1=0.732 x1=0.31 length=0.018548 units=km normamps=225.0
new line.52880211 phases=3 bus1=80481715001995.1.2.3 bus2=80481695001995.1.2.3 r1=0.236 x1=0.27 length=0.009647 units=km normamps=456.0
new line.52880212 phases=3 bus1=80481735001995.1.2.3 bus2=80481715001995.1.2.3 r1=0.236 x1=0.27 length=0.019669 units=km normamps=456.0
new line.52880213 phases=3 bus1=80481755001995.1.2.3 bus2=80480515001995.1.2.3 r1=0.236 x1=0.27 length=0.024624 units=km normamps=456.0
new line.52880214 phases=3 bus1=80481765001995.1.2.3 bus2=80481755001995.1.2.3 r1=0.236 x1=0.27 length=0.016646 units=km normamps=456.0
new line.52880216 phases=3 bus1=80481805001995.1.2.3 bus2=80481765001995.1.2.3 r1=0.236 x1=0.27 length=0.012482 units=km normamps=456.0
new line.52880217 phases=3 bus1=80481815001995.1.2.3 bus2=80481805001995.1.2.3 r1=0.245 x1=0.42 length=0.010841 units=km normamps=362.0
new line.52880218 phases=3 bus1=80481825001995.1.2.3 bus2=80481805001995.1.2.3 r1=0.236 x1=0.27 length=0.006211 units=km normamps=456.0
new line.52880219 phases=3 bus1=80479595001995B.1.2.3 bus2=80479605001995.1.2.3 r1=0.195 x1=0.4 length=0.034059 units=km normamps=419.0
new line.52880220 phases=3 bus1=80479615001995.1.2.3 bus2=80479605001995.1.2.3 r1=0.195 x1=0.4 length=0.025991 units=km normamps=419.0
new line.52880221 phases=3 bus1=80479625001995.1.2.3 bus2=80479615001995.1.2.3 r1=0.195 x1=0.4 length=0.030572 units=km normamps=419.0
new line.52880222 phases=3 bus1=80479635001995.1.2.3 bus2=80479625001995.1.2.3 r1=0.195 x1=0.4 length=0.030276 units=km normamps=419.0
new line.52880223 phases=3 bus1=80480475001995.1.2.3 bus2=80480485001995.1.2.3 r1=1.551 x1=0.49 length=0.015969 units=km normamps=114.0
new line.52880225 phases=3 bus1=80482825001995.1.2.3 bus2=80484525001995.1.2.3 r1=0.975 x1=0.47 length=0.021 units=km normamps=152.0
new line.52880227 phases=3 bus1=80483865001995.1.2.3 bus2=80483885001995.1.2.3 r1=0.195 x1=0.4 length=0.024891 units=km normamps=419.0
new line.52880228 phases=3 bus1=80483885001995.1.2.3 bus2=80483895001995.1.2.3 r1=0.195 x1=0.4 length=0.029098 units=km normamps=419.0
new line.52880229 phases=3 bus1=80483895001995.1.2.3 bus2=80483925001995.1.2.3 r1=0.195 x1=0.4 length=0.011628 units=km normamps=419.0
new line.52880230 phases=3 bus1=80483925001995.1.2.3 bus2=80483905001995.1.2.3 r1=0.195 x1=0.4 length=0.012813 units=km normamps=419.0
new line.52880231 phases=3 bus1=80483925001995.1.2.3 bus2=80479525001995.1.2.3 r1=1.551 x1=0.49 length=0.023085 units=km normamps=114.0
new line.52880232 phases=3 bus1=80483915001995.1.2.3 bus2=80483925001995.1.2.3 r1=1.551 x1=0.49 length=0.023003 units=km normamps=114.0
new line.52880233 phases=3 bus1=80483905001995.1.2.3 bus2=80484035001995.1.2.3 r1=0.195 x1=0.4 length=0.033182 units=km normamps=419.0
new line.52880234 phases=3 bus1=80484035001995.1.2.3 bus2=80484045001995.1.2.3 r1=0.195 x1=0.4 length=0.039471 units=km normamps=419.0
new line.52880235 phases=3 bus1=80484065001995.1.2.3 bus2=80479535001995.1.2.3 r1=0.195 x1=0.4 length=0.015338 units=km normamps=419.0
new line.52880236 phases=3 bus1=80484075001995.1.2.3 bus2=80484065001995B.1.2.3 r1=0.195 x1=0.4 length=0.029809 units=km normamps=419.0
new line.52880237 phases=3 bus1=80484085001995.1.2.3 bus2=80484075001995.1.2.3 r1=0.195 x1=0.4 length=0.029186 units=km normamps=419.0
new line.52880238 phases=3 bus1=80484095001995.1.2.3 bus2=90143535001995.1.2.3 r1=0.195 x1=0.4 length=0.014739 units=km normamps=419.0
new line.52880239 phases=3 bus1=80484045001995.1.2.3 bus2=80484095001995.1.2.3 r1=0.195 x1=0.4 length=0.035437 units=km normamps=419.0
new line.52880240 phases=3 bus1=80484105001995.1.2.3 bus2=80484095001995.1.2.3 r1=0.975 x1=0.47 length=0.007056 units=km normamps=152.0
new line.52880241 phases=3 bus1=80483725001995.1.2.3 bus2=80484145001995.1.2.3 r1=1.551 x1=0.49 length=0.026763 units=km normamps=114.0
new line.52880242 phases=3 bus1=80484145001995.1.2.3 bus2=80484155001995.1.2.3 r1=1.551 x1=0.49 length=0.034947 units=km normamps=114.0
new line.52880243 phases=3 bus1=80484155001995.1.2.3 bus2=80484165001995.1.2.3 r1=1.551 x1=0.49 length=0.045925 units=km normamps=114.0
new line.52880244 phases=3 bus1=80484165001995.1.2.3 bus2=80484175001995.1.2.3 r1=1.551 x1=0.49 length=0.019103 units=km normamps=114.0
new line.52880245 phases=3 bus1=80483645001995.1.2.3 bus2=80483635001995.1.2.3 r1=0.975 x1=0.47 length=0.010841 units=km normamps=152.0
new line.52880246 phases=3 bus1=80483635001995.1.2.3 bus2=80483655001995B.1.2.3 r1=0.975 x1=0.47 length=0.011658 units=km normamps=152.0
new line.52880247 phases=3 bus1=80483655001995.1.2.3 bus2=80483675001995.1.2.3 r1=0.732 x1=0.31 length=0.02852 units=km normamps=225.0
new line.52880248 phases=3 bus1=80483685001995.1.2.3 bus2=80483675001995.1.2.3 r1=0.732 x1=0.31 length=0.034975 units=km normamps=225.0
new line.52880249 phases=3 bus1=80483685001995.1.2.3 bus2=80483715001995.1.2.3 r1=0.732 x1=0.31 length=0.023935 units=km normamps=225.0
new line.52880250 phases=3 bus1=80483715001995.1.2.3 bus2=80483695001995.1.2.3 r1=0.732 x1=0.31 length=0.012486 units=km normamps=225.0
new line.52880251 phases=3 bus1=80483715001995.1.2.3 bus2=80483705001995.1.2.3 r1=0.732 x1=0.31 length=0.007605 units=km normamps=225.0
new line.52880252 phases=3 bus1=80483705001995.1.2.3 bus2=80483725001995.1.2.3 r1=1.551 x1=0.49 length=0.013196 units=km normamps=114.0
new line.52880254 phases=3 bus1=80483755001995.1.2.3 bus2=80483745001995.1.2.3 r1=0.732 x1=0.31 length=0.025161 units=km normamps=225.0
new line.52880255 phases=3 bus1=80483745001995.1.2.3 bus2=80483695001995.1.2.3 r1=0.732 x1=0.31 length=0.025911 units=km normamps=225.0
new line.52880256 phases=3 bus1=80483115001995B.1.2.3 bus2=96020495001995.1.2.3 r1=0.732 x1=0.31 length=0.007162 units=km normamps=225.0
new line.52880257 phases=3 bus1=80483125001995.1.2.3 bus2=96020485001995.1.2.3 r1=0.732 x1=0.31 length=0.023609 units=km normamps=225.0
new line.52880258 phases=3 bus1=80483145001995.1.2.3 bus2=80483125001995.1.2.3 r1=0.613 x1=0.45 length=0.025853 units=km normamps=203.0
new line.52880259 phases=3 bus1=80483145001995.1.2.3 bus2=80483135001995.1.2.3 r1=0.195 x1=0.4 length=0.010676 units=km normamps=419.0
new line.52880260 phases=3 bus1=80483155001995.1.2.3 bus2=80483145001995.1.2.3 r1=0.613 x1=0.45 length=0.01007 units=km normamps=203.0
new line.52880261 phases=3 bus1=80483165001995.1.2.3 bus2=80483145001995.1.2.3 r1=0.195 x1=0.4 length=0.035569 units=km normamps=419.0
new line.52880262 phases=3 bus1=80483175001995.1.2.3 bus2=80483165001995.1.2.3 r1=0.195 x1=0.4 length=0.020696 units=km normamps=419.0
new line.52880263 phases=3 bus1=80483185001995.1.2.3 bus2=80483175001995.1.2.3 r1=0.195 x1=0.4 length=0.028356 units=km normamps=419.0
new line.52880264 phases=3 bus1=80483195001995.1.2.3 bus2=80483185001995.1.2.3 r1=0.195 x1=0.4 length=0.031583 units=km normamps=419.0
new line.52880265 phases=3 bus1=80483255001995.1.2.3 bus2=80483195001995.1.2.3 r1=0.195 x1=0.4 length=0.02865 units=km normamps=419.0
new line.52880266 phases=3 bus1=80483265001995.1.2.3 bus2=80483255001995.1.2.3 r1=0.195 x1=0.4 length=0.034819 units=km normamps=419.0
new line.52880267 phases=3 bus1=80483275001995.1.2.3 bus2=89157765001995.1.2.3 r1=0.195 x1=0.4 length=0.01658 units=km normamps=419.0
new line.52880268 phases=3 bus1=80483305001995.1.2.3 bus2=80483275001995.1.2.3 r1=0.195 x1=0.4 length=0.029722 units=km normamps=419.0
new line.52880270 phases=3 bus1=80483365001995.1.2.3 bus2=80483375001995.1.2.3 r1=0.195 x1=0.4 length=0.026996 units=km normamps=419.0
new line.52880271 phases=3 bus1=80483375001995.1.2.3 bus2=80483385001995.1.2.3 r1=0.195 x1=0.4 length=0.014192 units=km normamps=419.0
new line.52880272 phases=3 bus1=80483385001995.1.2.3 bus2=80483315001995.1.2.3 r1=0.195 x1=0.4 length=0.017262 units=km normamps=419.0
new line.52880273 phases=3 bus1=80483325001995.1.2.3 bus2=80483385001995.1.2.3 r1=0.195 x1=0.4 length=0.020866 units=km normamps=419.0
new line.52880274 phases=3 bus1=80483385001995.1.2.3 bus2=80479485001995.1.2.3 r1=0.195 x1=0.4 length=0.008412 units=km normamps=419.0
new line.52880275 phases=3 bus1=80483395001995.1.2.3 bus2=80483375001995B.1.2.3 r1=0.195 x1=0.4 length=0.032539 units=km normamps=419.0
new line.52880276 phases=3 bus1=80483715001995.1.2.3 bus2=80483415001995.1.2.3 r1=0.732 x1=0.31 length=0.027531 units=km normamps=225.0
new line.52880277 phases=3 bus1=80483415001995.1.2.3 bus2=80483405001995.1.2.3 r1=0.732 x1=0.31 length=0.015573 units=km normamps=225.0
new line.52880278 phases=3 bus1=80483405001995.1.2.3 bus2=80483425001995.1.2.3 r1=1.551 x1=0.49 length=0.024962 units=km normamps=114.0
new line.52880279 phases=3 bus1=80483425001995.1.2.3 bus2=80483435001995.1.2.3 r1=1.551 x1=0.49 length=0.02108 units=km normamps=114.0
new line.52880280 phases=3 bus1=80483445001995.1.2.3 bus2=80483435001995.1.2.3 r1=1.551 x1=0.49 length=0.011574 units=km normamps=114.0
new line.52880281 phases=3 bus1=80483435001995.1.2.3 bus2=80483455001995.1.2.3 r1=1.551 x1=0.49 length=0.043596 units=km normamps=114.0
new line.52880282 phases=3 bus1=80483455001995.1.2.3 bus2=80483465001995.1.2.3 r1=1.551 x1=0.49 length=0.041513 units=km normamps=114.0
new line.52880285 phases=3 bus1=80483555001995.1.2.3 bus2=80483415001995.1.2.3 r1=0.732 x1=0.31 length=0.006359 units=km normamps=225.0
new line.52880286 phases=3 bus1=80483565001995.1.2.3 bus2=80483415001995.1.2.3 r1=0.732 x1=0.31 length=0.016334 units=km normamps=225.0
new line.52880287 phases=3 bus1=80483135001995.1.2.3 bus2=80483795001995.1.2.3 r1=0.195 x1=0.4 length=0.030282 units=km normamps=419.0
new line.52880288 phases=3 bus1=80483795001995.1.2.3 bus2=80483805001995.1.2.3 r1=0.195 x1=0.4 length=0.03083 units=km normamps=419.0
new line.52880289 phases=3 bus1=80483815001995.1.2.3 bus2=80483795001995.1.2.3 r1=0.195 x1=0.4 length=0.00636 units=km normamps=419.0
new line.52880290 phases=3 bus1=80483805001995.1.2.3 bus2=80479495001995.1.2.3 r1=0.195 x1=0.4 length=0.031755 units=km normamps=419.0
new line.52880291 phases=3 bus1=80479495001995B.1.2.3 bus2=80479505001995.1.2.3 r1=0.975 x1=0.47 length=0.013293 units=km normamps=152.0
new line.52880292 phases=3 bus1=80479495001995.1.2.3 bus2=80483835001995.1.2.3 r1=0.195 x1=0.4 length=0.033883 units=km normamps=419.0
new line.52880293 phases=3 bus1=80483835001995.1.2.3 bus2=80483845001995.1.2.3 r1=0.195 x1=0.4 length=0.035141 units=km normamps=419.0
new line.52880294 phases=3 bus1=80483845001995.1.2.3 bus2=80483865001995.1.2.3 r1=0.195 x1=0.4 length=0.037945 units=km normamps=419.0
new line.52880295 phases=3 bus1=80484175001995.1.2.3 bus2=80484335001995.1.2.3 r1=1.551 x1=0.49 length=0.003152 units=km normamps=114.0
new line.52880296 phases=3 bus1=80484495001995.1.2.3 bus2=80484505001995.1.2.3 r1=0.188 x1=0.26 length=0.030503 units=km normamps=525.0
new line.52880297 phases=3 bus1=80484505001995.1.2.3 bus2=80484485001995.1.2.3 r1=0.188 x1=0.26 length=0.031746 units=km normamps=525.0
new line.52880298 phases=3 bus1=80484485001995.1.2.3 bus2=80484475001995.1.2.3 r1=0.188 x1=0.26 length=0.038706 units=km normamps=525.0
new line.52880299 phases=3 bus1=80484475001995.1.2.3 bus2=80484465001995.1.2.3 r1=0.188 x1=0.26 length=0.037942 units=km normamps=525.0
new line.52880300 phases=3 bus1=80484465001995.1.2.3 bus2=80447855001995.1.2.3 r1=0.188 x1=0.26 length=0.044144 units=km normamps=525.0
...

! 3. Chaves Seccionadoras MT
new line.SC_5271246 phases=3 bus1=80482865001995.1.2.3 bus2=80482865001995B.1.2.3 switch=y r1=1e-4 x1=1e-4 length=0.001 units=km
new line.SC_5271247 phases=3 bus1=80479595001995.1.2.3 bus2=80479595001995B.1.2.3 switch=y r1=1e-4 x1=1e-4 length=0.001 units=km
new line.SC_5271248 phases=3 bus1=80481115001995.1.2.3 bus2=80481115001995B.1.2.3 switch=y r1=1e-4 x1=1e-4 length=0.001 units=km
new line.SC_5271250 phases=3 bus1=80480525001995.1.2.3 bus2=80480525001995B.1.2.3 switch=y r1=1e-4 x1=1e-4 length=0.001 units=km
new line.SC_5271251 phases=3 bus1=80480825001995.1.2.3 bus2=80480825001995B.1.2.3 switch=y r1=1e-4 x1=1e-4 length=0.001 units=km
open line.SC_5271251 1
new line.SC_5271252 phases=3 bus1=80484065001995.1.2.3 bus2=80484065001995B.1.2.3 switch=y r1=1e-4 x1=1e-4 length=0.001 units=km
new line.SC_5271287 phases=3 bus1=80479525001995.1.2.3 bus2=80479525001995B.1.2.3 switch=y r1=1e-4 x1=1e-4 length=0.001 units=km
new line.SC_5271289 phases=3 bus1=80480785001995.1.2.3 bus2=80480785001995B.1.2.3 switch=y r1=1e-4 x1=1e-4 length=0.001 units=km
new line.SC_5271292 phases=3 bus1=80479495001995.1.2.3 bus2=80479495001995B.1.2.3 switch=y r1=1e-4 x1=1e-4 length=0.001 units=km
new line.SC_5271293 phases=3 bus1=80483655001995.1.2.3 bus2=80483655001995B.1.2.3 switch=y r1=1e-4 x1=1e-4 length=0.001 units=km
new line.SC_5271296 phases=3 bus1=80482685001995.1.2.3 bus2=80482685001995B.1.2.3 switch=y r1=1e-4 x1=1e-4 length=0.001 units=km
new line.SC_5271693 phases=3 bus1=80483365001995.1.2.3 bus2=80483365001995B.1.2.3 switch=y r1=1e-4 x1=1e-4 length=0.001 units=km
new line.SC_5271770 phases=3 bus1=80524215001995.1.2.3 bus2=80524215001995B.1.2.3 switch=y r1=1e-4 x1=1e-4 length=0.001 units=km
new line.SC_5271771 phases=3 bus1=80525535001995.1.2.3 bus2=80525535001995B.1.2.3 switch=y r1=1e-4 x1=1e-4 length=0.001 units=km
new line.SC_5271789 phases=3 bus1=80522095001995.1.2.3 bus2=80522095001995B.1.2.3 switch=y r1=1e-4 x1=1e-4 length=0.001 units=km
new line.SC_5271790 phases=3 bus1=80522155001995.1.2.3 bus2=80522155001995B.1.2.3 switch=y r1=1e-4 x1=1e-4 length=0.001 units=km
new line.SC_5271793 phases=3 bus1=80522285001995.1.2.3 bus2=80522285001995B.1.2.3 switch=y r1=1e-4 x1=1e-4 length=0.001 units=km
new line.SC_5271794 phases=3 bus1=80522515001995.1.2.3 bus2=80522515001995B.1.2.3 switch=y r1=1e-4 x1=1e-4 length=0.001 units=km
new line.SC_5271795 phases=3 bus1=80522465001995.1.2.3 bus2=80522465001995B.1.2.3 switch=y r1=1e-4 x1=1e-4 length=0.001 units=km
new line.SC_5271799 phases=3 bus1=80527325001995.1.2.3 bus2=80527325001995B.1.2.3 switch=y r1=1e-4 x1=1e-4 length=0.001 units=km
new line.SC_5271800 phases=3 bus1=80524595001995.1.2.3 bus2=80524595001995B.1.2.3 switch=y r1=1e-4 x1=1e-4 length=0.001 units=km
new line.SC_5272079 phases=3 bus1=80483155001995.1.2.3 bus2=80483155001995B.1.2.3 switch=y r1=1e-4 x1=1e-4 length=0.001 units=km
new line.SC_5304898 phases=3 bus1=80483375001995.1.2.3 bus2=80483375001995B.1.2.3 switch=y r1=1e-4 x1=1e-4 length=0.001 units=km
new line.SC_5499501 phases=3 bus1=80481685001995.1.2.3 bus2=80481685001995B.1.2.3 switch=y r1=1e-4 x1=1e-4 length=0.001 units=km
new line.SC_5519083 phases=3 bus1=80483285001995.1.2.3 bus2=80483285001995B.1.2.3 switch=y r1=1e-4 x1=1e-4 length=0.001 units=km
new line.SC_5549803 phases=3 bus1=90078705001995.1.2.3 bus2=90078705001995B.1.2.3 switch=y r1=1e-4 x1=1e-4 length=0.001 units=km
open line.SC_5549803 1
new line.SC_5549804 phases=3 bus1=93307785001995.1.2.3 bus2=93307785001995B.1.2.3 switch=y r1=1e-4 x1=1e-4 length=0.001 units=km
open line.SC_5549804 1
new line.SC_5549805 phases=3 bus1=90078715001995.1.2.3 bus2=90078715001995B.1.2.3 switch=y r1=1e-4 x1=1e-4 length=0.001 units=km
new line.SC_5549808 phases=3 bus1=93032215001995.1.2.3 bus2=93032215001995B.1.2.3 switch=y r1=1e-4 x1=1e-4 length=0.001 units=km
new line.SC_5549810 phases=3 bus1=90078745001995.1.2.3 bus2=90078745001995B.1.2.3 switch=y r1=1e-4 x1=1e-4 length=0.001 units=km
new line.SC_5549811 phases=3 bus1=93032275001995.1.2.3 bus2=93032275001995B.1.2.3 switch=y r1=1e-4 x1=1e-4 length=0.001 units=km
new line.SC_5553392 phases=3 bus1=80479485001995.1.2.3 bus2=80479485001995B.1.2.3 switch=y r1=1e-4 x1=1e-4 length=0.001 units=km
new line.SC_5577847 phases=3 bus1=80481195001995.1.2.3 bus2=80481195001995B.1.2.3 switch=y r1=1e-4 x1=1e-4 length=0.001 units=km
new line.SC_5619521 phases=3 bus1=80522385001995.1.2.3 bus2=80522385001995B.1.2.3 switch=y r1=1e-4 x1=1e-4 length=0.001 units=km
new line.SC_5619522 phases=3 bus1=80522225001995.1.2.3 bus2=80522225001995B.1.2.3 switch=y r1=1e-4 x1=1e-4 length=0.001 units=km
new line.SC_5642275 phases=3 bus1=92918795001995.1.2.3 bus2=92918795001995B.1.2.3 switch=y r1=1e-4 x1=1e-4 length=0.001 units=km
open line.SC_5642275 1
new line.SC_5645190 phases=3 bus1=93032315001995.1.2.3 bus2=93032315001995B.1.2.3 switch=y r1=1e-4 x1=1e-4 length=0.001 units=km
open line.SC_5645190 1
new line.SC_5677674 phases=3 bus1=94061675001995.1.2.3 bus2=94061675001995B.1.2.3 switch=y r1=1e-4 x1=1e-4 length=0.001 units=km
open line.SC_5677674 1
new line.SC_5687514 phases=3 bus1=94299315001995.1.2.3 bus2=94299315001995B.1.2.3 switch=y r1=1e-4 x1=1e-4 length=0.001 units=km
open line.SC_5687514 1
new line.SC_5702412 phases=3 bus1=94298925001995.1.2.3 bus2=94298925001995B.1.2.3 switch=y r1=1e-4 x1=1e-4 length=0.001 units=km
open line.SC_5702412 1
new line.SC_5702440 phases=3 bus1=94061615001995.1.2.3 bus2=94061615001995B.1.2.3 switch=y r1=1e-4 x1=1e-4 length=0.001 units=km
new line.SC_5718366 phases=3 bus1=95038185001995.1.2.3 bus2=95038185001995B.1.2.3 switch=y r1=1e-4 x1=1e-4 length=0.001 units=km
open line.SC_5718366 1
new line.SC_5718367 phases=3 bus1=95038265001995.1.2.3 bus2=95038265001995B.1.2.3 switch=y r1=1e-4 x1=1e-4 length=0.001 units=km
open line.SC_5718367 1
new line.SC_5733656 phases=3 bus1=95767135001995.1.2.3 bus2=95767135001995B.1.2.3 switch=y r1=1e-4 x1=1e-4 length=0.001 units=km
open line.SC_5733656 1
new line.SC_5733657 phases=3 bus1=95767125001995.1.2.3 bus2=95767125001995B.1.2.3 switch=y r1=1e-4 x1=1e-4 length=0.001 units=km
new line.SC_5739819 phases=3 bus1=96020465001995.1.2.3 bus2=96020465001995B.1.2.3 switch=y r1=1e-4 x1=1e-4 length=0.001 units=km
open line.SC_5739819 1
new line.SC_5739820 phases=3 bus1=80483115001995.1.2.3 bus2=80483115001995B.1.2.3 switch=y r1=1e-4 x1=1e-4 length=0.001 units=km
new line.SC_5757218 phases=3 bus1=80479645001995.1.2.3 bus2=80479645001995B.1.2.3 switch=y r1=1e-4 x1=1e-4 length=0.001 units=km
new line.SC_5763569 phases=3 bus1=80480365001995.1.2.3 bus2=80480365001995B.1.2.3 switch=y r1=1e-4 x1=1e-4 length=0.001 units=km
new line.SC_5771660 phases=3 bus1=80479985001995.1.2.3 bus2=80479985001995B.1.2.3 switch=y r1=1e-4 x1=1e-4 length=0.001 units=km
new line.SC_5775830 phases=3 bus1=80521315001995.1.2.3 bus2=80521315001995B.1.2.3 switch=y r1=1e-4 x1=1e-4 length=0.001 units=km
new line.SC_5792098 phases=3 bus1=80522125001995.1.2.3 bus2=80522125001995B.1.2.3 switch=y r1=1e-4 x1=1e-4 length=0.001 units=km
new line.SC_5794528 phases=3 bus1=80524205001995.1.2.3 bus2=80524205001995B.1.2.3 switch=y r1=1e-4 x1=1e-4 length=0.001 units=km
new line.SC_5811058 phases=3 bus1=80480525001995.1.2.3 bus2=80480525001995B.1.2.3 switch=y r1=1e-4 x1=1e-4 length=0.001 units=km
new line.SC_SA0002827 phases=3 bus1=SA0002827.1.2.3 bus2=SA0002827B.1.2.3 switch=y r1=1e-4 x1=1e-4 length=0.001 units=km
new line.SC_SA0002828 phases=3 bus1=SA0002828.1.2.3 bus2=SA0002828B.1.2.3 switch=y r1=1e-4 x1=1e-4 length=0.001 units=km
new line.SC_DA0000430 phases=3 bus1=I888888315155001995.1.2.3 bus2=I888888315155001995B.1.2.3 switch=y r1=1e-4 x1=1e-4 length=0.001 units=km

! 5. Transformadores MT/BT de Distribuicao
new transformer.UNTRMT_5811059 phases=3 windings=2 %r=1.39 xhl=3.21 kva=150.0
~ wdg=1 bus=80484245001995.1.2.3 conn=delta kv=13.8
~ wdg=2 bus=80484245811059.1.2.3.0 conn=wye kv=0.38

new transformer.UNTRMT_5271255 phases=3 windings=2 %r=1.25 xhl=4.32 kva=300.0
~ wdg=1 bus=80481365001995.1.2.3 conn=delta kv=13.8
~ wdg=2 bus=80481365271255.1.2.3.0 conn=wye kv=0.38

new transformer.UNTRMT_5271258 phases=3 windings=2 %r=1.39 xhl=3.21 kva=150.0
~ wdg=1 bus=80481575001995.1.2.3 conn=delta kv=13.8
~ wdg=2 bus=80481575271258.1.2.3.0 conn=wye kv=0.38

new transformer.UNTRMT_5271259 phases=3 windings=2 %r=1.3 xhl=4.31 kva=112.0
~ wdg=1 bus=80481705001995.1.2.3 conn=delta kv=13.8
~ wdg=2 bus=80481705271259.1.2.3.0 conn=wye kv=0.38

new transformer.UNTRMT_5271260 phases=3 windings=2 %r=1.25 xhl=4.32 kva=300.0
~ wdg=1 bus=80481725001995.1.2.3 conn=delta kv=13.8
~ wdg=2 bus=80481725271260.1.2.3.0 conn=wye kv=0.38

new transformer.UNTRMT_5271261 phases=3 windings=2 %r=1.25 xhl=4.32 kva=300.0
~ wdg=1 bus=80481745001995.1.2.3 conn=delta kv=13.8
~ wdg=2 bus=80481745271261.1.2.3.0 conn=wye kv=0.38

new transformer.UNTRMT_5271263 phases=3 windings=2 %r=1.25 xhl=4.32 kva=300.0
~ wdg=1 bus=80481785001995.1.2.3 conn=delta kv=13.8
~ wdg=2 bus=80481785271263.1.2.3.0 conn=wye kv=0.38

new transformer.UNTRMT_5271264 phases=3 windings=2 %r=1.46 xhl=3.18 kva=112.0
~ wdg=1 bus=80481815001995.1.2.3 conn=delta kv=13.8
~ wdg=2 bus=80481815271264.1.2.3.0 conn=wye kv=0.38

new transformer.UNTRMT_5271265 phases=3 windings=2 %r=1.46 xhl=3.18 kva=112.0
~ wdg=1 bus=80481875001995.1.2.3 conn=delta kv=13.8
~ wdg=2 bus=80481875271265.1.2.3.0 conn=wye kv=0.38

new transformer.UNTRMT_5271267 phases=3 windings=2 %r=1.46 xhl=3.18 kva=112.0
~ wdg=1 bus=80481945001995.1.2.3 conn=delta kv=13.8
~ wdg=2 bus=80481945271267.1.2.3.0 conn=wye kv=0.38

new transformer.UNTRMT_5271268 phases=3 windings=2 %r=1.68 xhl=3.07 kva=45.0
~ wdg=1 bus=80482065001995.1.2.3 conn=delta kv=13.8
~ wdg=2 bus=80482065271268.1.2.3.0 conn=wye kv=0.38

new transformer.UNTRMT_5271270 phases=3 windings=2 %r=1.55 xhl=3.14 kva=75.0
~ wdg=1 bus=80483005001995.1.2.3 conn=delta kv=13.8
~ wdg=2 bus=80483005271270.1.2.3.0 conn=wye kv=0.38

new transformer.UNTRMT_5271271 phases=3 windings=2 %r=1.46 xhl=3.18 kva=112.0
~ wdg=1 bus=80480135001995.1.2.3 conn=delta kv=13.8
~ wdg=2 bus=80480135271271.1.2.3.0 conn=wye kv=0.38

new transformer.UNTRMT_5271277 phases=3 windings=2 %r=1.68 xhl=3.07 kva=45.0
~ wdg=1 bus=80483395001995.1.2.3 conn=delta kv=13.8
~ wdg=2 bus=80483395271277.1.2.3.0 conn=wye kv=0.38

new transformer.UNTRMT_5271278 phases=3 windings=2 %r=1.3 xhl=4.31 kva=225.0
~ wdg=1 bus=80483445001995.1.2.3 conn=delta kv=13.8
~ wdg=2 bus=80483445271278.1.2.3.0 conn=wye kv=0.38

new transformer.UNTRMT_5271282 phases=3 windings=2 %r=1.78 xhl=3.01 kva=30.0
~ wdg=1 bus=80484525001995.1.2.3 conn=delta kv=13.8
~ wdg=2 bus=80484525271282.1.2.3.0 conn=wye kv=0.38

new transformer.UNTRMT_5271297 phases=3 windings=2 %r=1.46 xhl=3.18 kva=112.0
~ wdg=1 bus=80483065001995.1.2.3 conn=delta kv=13.8
~ wdg=2 bus=80483065271297.1.2.3.0 conn=wye kv=0.38

new transformer.UNTRMT_5271298 phases=3 windings=2 %r=1.46 xhl=3.18 kva=112.0
~ wdg=1 bus=80480455001995.1.2.3 conn=delta kv=13.8
~ wdg=2 bus=80480455271298.1.2.3.0 conn=wye kv=0.38

new transformer.UNTRMT_5271299 phases=3 windings=2 %r=1.46 xhl=3.18 kva=112.0
~ wdg=1 bus=80481485001995.1.2.3 conn=delta kv=13.8
~ wdg=2 bus=80481485271299.1.2.3.0 conn=wye kv=0.38

new transformer.UNTRMT_5271302 phases=3 windings=2 %r=1.46 xhl=3.18 kva=112.0
~ wdg=1 bus=80481585001995.1.2.3 conn=delta kv=13.8
~ wdg=2 bus=80481585271302.1.2.3.0 conn=wye kv=0.38

new transformer.UNTRMT_5271303 phases=3 windings=2 %r=1.39 xhl=3.21 kva=150.0
~ wdg=1 bus=80481615001995.1.2.3 conn=delta kv=13.8
~ wdg=2 bus=80481615271303.1.2.3.0 conn=wye kv=0.38

new transformer.UNTRMT_5271304 phases=3 windings=2 %r=1.46 xhl=3.18 kva=112.0
~ wdg=1 bus=80481835001995.1.2.3 conn=delta kv=13.8
~ wdg=2 bus=80481835271304.1.2.3.0 conn=wye kv=0.38

new transformer.UNTRMT_5271305 phases=3 windings=2 %r=1.46 xhl=3.18 kva=112.0
~ wdg=1 bus=80481895001995.1.2.3 conn=delta kv=13.8
~ wdg=2 bus=80481895271305.1.2.3.0 conn=wye kv=0.38

new transformer.UNTRMT_5271306 phases=3 windings=2 %r=1.46 xhl=3.18 kva=112.0
~ wdg=1 bus=80481955001995.1.2.3 conn=delta kv=13.8
~ wdg=2 bus=80481955271306.1.2.3.0 conn=wye kv=0.38

new transformer.UNTRMT_5271307 phases=3 windings=2 %r=1.46 xhl=3.18 kva=112.0
~ wdg=1 bus=80482605001995.1.2.3 conn=delta kv=13.8
~ wdg=2 bus=80482605271307.1.2.3.0 conn=wye kv=0.38

new transformer.UNTRMT_5271308 phases=3 windings=2 %r=1.78 xhl=3.01 kva=30.0
~ wdg=1 bus=80483095001995.1.2.3 conn=delta kv=13.8
~ wdg=2 bus=80483095271308.1.2.3.0 conn=wye kv=0.38

new transformer.UNTRMT_5271309 phases=3 windings=2 %r=1.55 xhl=3.14 kva=75.0
~ wdg=1 bus=80483085001995.1.2.3 conn=delta kv=13.8
~ wdg=2 bus=80483085271309.1.2.3.0 conn=wye kv=0.38

new transformer.UNTRMT_5271310 phases=3 windings=2 %r=1.68 xhl=3.07 kva=45.0
~ wdg=1 bus=80481125001995.1.2.3 conn=delta kv=13.8
~ wdg=2 bus=80481125271310.1.2.3.0 conn=wye kv=0.38

new transformer.UNTRMT_5271311 phases=3 windings=2 %r=1.78 xhl=3.01 kva=30.0
~ wdg=1 bus=80480005001995.1.2.3 conn=delta kv=13.8
~ wdg=2 bus=80480005271311.1.2.3.0 conn=wye kv=0.38

new transformer.UNTRMT_5271314 phases=3 windings=2 %r=1.46 xhl=3.18 kva=112.0
~ wdg=1 bus=80480205001995.1.2.3 conn=delta kv=13.8
~ wdg=2 bus=80480205271314.1.2.3.0 conn=wye kv=0.38

new transformer.UNTRMT_5271315 phases=3 windings=2 %r=1.39 xhl=3.21 kva=150.0
~ wdg=1 bus=80480325001995.1.2.3 conn=delta kv=13.8
~ wdg=2 bus=80480325271315.1.2.3.0 conn=wye kv=0.38

new transformer.UNTRMT_5271318 phases=3 windings=2 %r=1.55 xhl=3.14 kva=75.0
~ wdg=1 bus=80482495001995.1.2.3 conn=delta kv=13.8
~ wdg=2 bus=80482495271318.1.2.3.0 conn=wye kv=0.38

new transformer.UNTRMT_5271319 phases=3 windings=2 %r=1.46 xhl=3.18 kva=187.0
~ wdg=1 bus=80480555001995.1.2.3 conn=delta kv=13.8
~ wdg=2 bus=80480555271319.1.2.3.0 conn=wye kv=0.38

new transformer.UNTRMT_5271319_2 phases=3 windings=2 %r=1.55 xhl=3.14 kva=187.0
~ wdg=1 bus=80480555001995.1.2.3 conn=delta kv=13.8
~ wdg=2 bus=80480555271319_2.1.2.3.0 conn=wye kv=0.38

new transformer.UNTRMT_5271321 phases=3 windings=2 %r=1.46 xhl=3.18 kva=112.0
~ wdg=1 bus=80480705001995.1.2.3 conn=delta kv=13.8
~ wdg=2 bus=80480705271321.1.2.3.0 conn=wye kv=0.38

new transformer.UNTRMT_5271323 phases=3 windings=2 %r=1.78 xhl=3.01 kva=30.0
~ wdg=1 bus=80484335001995.1.2.3 conn=delta kv=13.8
~ wdg=2 bus=80484335271323.1.2.3.0 conn=wye kv=0.38

new transformer.UNTRMT_5271324 phases=3 windings=2 %r=1.55 xhl=3.14 kva=75.0
~ wdg=1 bus=80483465001995.1.2.3 conn=delta kv=13.8
~ wdg=2 bus=80483465271324.1.2.3.0 conn=wye kv=0.38

new transformer.UNTRMT_5271325 phases=3 windings=2 %r=1.55 xhl=3.14 kva=75.0
~ wdg=1 bus=80483555001995.1.2.3 conn=delta kv=13.8
~ wdg=2 bus=80483555271325.1.2.3.0 conn=wye kv=0.38

new transformer.UNTRMT_5271326 phases=3 windings=2 %r=1.39 xhl=3.21 kva=150.0
~ wdg=1 bus=80483305001995.1.2.3 conn=delta kv=13.8
~ wdg=2 bus=80483305271326.1.2.3.0 conn=wye kv=0.38

new transformer.UNTRMT_5271327 phases=3 windings=2 %r=1.39 xhl=3.21 kva=150.0
~ wdg=1 bus=80483815001995.1.2.3 conn=delta kv=13.8
~ wdg=2 bus=80483815271327.1.2.3.0 conn=wye kv=0.38

new transformer.UNTRMT_5271328 phases=3 windings=2 %r=1.46 xhl=3.18 kva=112.0
~ wdg=1 bus=80483805001995.1.2.3 conn=delta kv=13.8
~ wdg=2 bus=80483805271328.1.2.3.0 conn=wye kv=0.38

new transformer.UNTRMT_5271329 phases=3 windings=2 %r=1.55 xhl=3.14 kva=75.0
~ wdg=1 bus=80483885001995.1.2.3 conn=delta kv=13.8
~ wdg=2 bus=80483885271329.1.2.3.0 conn=wye kv=0.38

new transformer.UNTRMT_5271330 phases=3 windings=2 %r=1.46 xhl=3.18 kva=112.0
~ wdg=1 bus=80483645001995.1.2.3 conn=delta kv=13.8
~ wdg=2 bus=80483645271330.1.2.3.0 conn=wye kv=0.38

new transformer.UNTRMT_5271331 phases=3 windings=2 %r=1.55 xhl=3.14 kva=75.0
~ wdg=1 bus=80484045001995.1.2.3 conn=delta kv=13.8
~ wdg=2 bus=80484045271331.1.2.3.0 conn=wye kv=0.38

new transformer.UNTRMT_5271332 phases=3 windings=2 %r=1.55 xhl=3.14 kva=75.0
~ wdg=1 bus=80483755001995.1.2.3 conn=delta kv=13.8
~ wdg=2 bus=80483755271332.1.2.3.0 conn=wye kv=0.38

new transformer.UNTRMT_5271727 phases=3 windings=2 %r=1.46 xhl=3.18 kva=112.0
~ wdg=1 bus=97779145001995.1.2.3 conn=delta kv=13.8
~ wdg=2 bus=97779145271727.1.2.3.0 conn=wye kv=0.38

new transformer.UNTRMT_5271738 phases=3 windings=2 %r=1.55 xhl=3.14 kva=75.0
~ wdg=1 bus=80522325001995.1.2.3 conn=delta kv=13.8
~ wdg=2 bus=80522325271738.1.2.3.0 conn=wye kv=0.38

new transformer.UNTRMT_5271744 phases=3 windings=2 %r=1.39 xhl=3.21 kva=150.0
~ wdg=1 bus=80527305001995.1.2.3 conn=delta kv=13.8
~ wdg=2 bus=80527305271744.1.2.3.0 conn=wye kv=0.38

new transformer.UNTRMT_5271745 phases=3 windings=2 %r=1.55 xhl=3.14 kva=75.0
~ wdg=1 bus=80527405001995.1.2.3 conn=delta kv=13.8
~ wdg=2 bus=80527405271745.1.2.3.0 conn=wye kv=0.38

new transformer.UNTRMT_5271846 phases=3 windings=2 %r=1.46 xhl=3.18 kva=112.0
~ wdg=1 bus=80521365001995.1.2.3 conn=delta kv=13.8
~ wdg=2 bus=80521365271846.1.2.3.0 conn=wye kv=0.38

new transformer.UNTRMT_5271854 phases=3 windings=2 %r=1.55 xhl=3.14 kva=75.0
~ wdg=1 bus=80523955001995.1.2.3 conn=delta kv=13.8
~ wdg=2 bus=80523955271854.1.2.3.0 conn=wye kv=0.38

new transformer.UNTRMT_5271858 phases=3 windings=2 %r=1.46 xhl=3.18 kva=112.0
~ wdg=1 bus=80522135001995.1.2.3 conn=delta kv=13.8
~ wdg=2 bus=80522135271858.1.2.3.0 conn=wye kv=0.38

new transformer.UNTRMT_5271859 phases=3 windings=2 %r=1.39 xhl=3.21 kva=150.0
~ wdg=1 bus=80522175001995.1.2.3 conn=delta kv=13.8
~ wdg=2 bus=80522175271859.1.2.3.0 conn=wye kv=0.38

new transformer.UNTRMT_5271860 phases=3 windings=2 %r=1.39 xhl=3.21 kva=150.0
~ wdg=1 bus=80522195001995.1.2.3 conn=delta kv=13.8
~ wdg=2 bus=80522195271860.1.2.3.0 conn=wye kv=0.38

new transformer.UNTRMT_5271861 phases=3 windings=2 %r=1.55 xhl=3.14 kva=75.0
~ wdg=1 bus=80522245001995.1.2.3 conn=delta kv=13.8
~ wdg=2 bus=80522245271861.1.2.3.0 conn=wye kv=0.38

new transformer.UNTRMT_5271862 phases=3 windings=2 %r=1.55 xhl=3.14 kva=75.0
~ wdg=1 bus=80522315001995.1.2.3 conn=delta kv=13.8
~ wdg=2 bus=80522315271862.1.2.3.0 conn=wye kv=0.38

new transformer.UNTRMT_5271863 phases=3 windings=2 %r=1.46 xhl=3.18 kva=112.0
~ wdg=1 bus=80527215001995.1.2.3 conn=delta kv=13.8
~ wdg=2 bus=80527215271863.1.2.3.0 conn=wye kv=0.38

new transformer.UNTRMT_5271864 phases=3 windings=2 %r=1.46 xhl=3.18 kva=112.0
~ wdg=1 bus=80527345001995.1.2.3 conn=delta kv=13.8
~ wdg=2 bus=80527345271864.1.2.3.0 conn=wye kv=0.38

new transformer.UNTRMT_5271878 phases=3 windings=2 %r=1.55 xhl=3.14 kva=75.0
~ wdg=1 bus=80522375001995.1.2.3 conn=delta kv=13.8
~ wdg=2 bus=80522375271878.1.2.3.0 conn=wye kv=0.38

new transformer.UNTRMT_5271879 phases=3 windings=2 %r=1.46 xhl=3.18 kva=112.0
~ wdg=1 bus=80522485001995.1.2.3 conn=delta kv=13.8
~ wdg=2 bus=80522485271879.1.2.3.0 conn=wye kv=0.38

new transformer.UNTRMT_5271882 phases=3 windings=2 %r=1.55 xhl=3.14 kva=75.0
~ wdg=1 bus=80527455001995.1.2.3 conn=delta kv=13.8
~ wdg=2 bus=80527455271882.1.2.3.0 conn=wye kv=0.38

new transformer.UNTRMT_5271883 phases=3 windings=2 %r=1.55 xhl=3.14 kva=75.0
~ wdg=1 bus=80527665001995.1.2.3 conn=delta kv=13.8
~ wdg=2 bus=80527665271883.1.2.3.0 conn=wye kv=0.38

new transformer.UNTRMT_5271884 phases=3 windings=2 %r=1.55 xhl=3.14 kva=75.0
~ wdg=1 bus=80527535001995.1.2.3 conn=delta kv=13.8
~ wdg=2 bus=80527535271884.1.2.3.0 conn=wye kv=0.38

new transformer.UNTRMT_5271888 phases=3 windings=2 %r=1.39 xhl=3.21 kva=150.0
~ wdg=1 bus=80524565001995.1.2.3 conn=delta kv=13.8
~ wdg=2 bus=80524565271888.1.2.3.0 conn=wye kv=0.38

new transformer.UNTRMT_5272218 phases=3 windings=2 %r=1.46 xhl=3.18 kva=112.0
~ wdg=1 bus=80544615001995.1.2.3 conn=delta kv=13.8
~ wdg=2 bus=80544615272218.1.2.3.0 conn=wye kv=0.38

new transformer.UNTRMT_5272219 phases=3 windings=2 %r=1.55 xhl=3.14 kva=75.0
~ wdg=1 bus=80544715001995.1.2.3 conn=delta kv=13.8
~ wdg=2 bus=80544715272219.1.2.3.0 conn=wye kv=0.38

new transformer.UNTRMT_5284037 phases=3 windings=2 %r=1.55 xhl=3.14 kva=75.0
~ wdg=1 bus=80524195001995.1.2.3 conn=delta kv=13.8
~ wdg=2 bus=80524195284037.1.2.3.0 conn=wye kv=0.38

new transformer.UNTRMT_5309214 phases=3 windings=2 %r=1.55 xhl=3.14 kva=75.0
~ wdg=1 bus=80526945001995.1.2.3 conn=delta kv=13.8
~ wdg=2 bus=80526945309214.1.2.3.0 conn=wye kv=0.38

new transformer.UNTRMT_5519072 phases=3 windings=2 %r=1.46 xhl=3.18 kva=112.0
~ wdg=1 bus=89157755001995.1.2.3 conn=delta kv=13.8
~ wdg=2 bus=89157755519072.1.2.3.0 conn=wye kv=0.38

new transformer.UNTRMT_5526930 phases=3 windings=2 %r=1.78 xhl=3.01 kva=30.0
~ wdg=1 bus=93215485001995.1.2.3 conn=delta kv=13.8
~ wdg=2 bus=93215485526930.1.2.3.0 conn=wye kv=0.38

new transformer.UNTRMT_5532938 phases=3 windings=2 %r=1.78 xhl=3.01 kva=30.0
~ wdg=1 bus=80527315001995.1.2.3 conn=delta kv=13.8
~ wdg=2 bus=80527315532938.1.2.3.0 conn=wye kv=0.38

new transformer.UNTRMT_5576136 phases=3 windings=2 %r=1.25 xhl=4.32 kva=300.0
~ wdg=1 bus=80522445001995.1.2.3 conn=delta kv=13.8
~ wdg=2 bus=80522445576136.1.2.3.0 conn=wye kv=0.38

new transformer.UNTRMT_5586283 phases=3 windings=2 %r=1.46 xhl=3.18 kva=112.0
~ wdg=1 bus=91147635001995.1.2.3 conn=delta kv=13.8
~ wdg=2 bus=91147635586283.1.2.3.0 conn=wye kv=0.38

new transformer.UNTRMT_5620042 phases=3 windings=2 %r=1.55 xhl=3.14 kva=75.0
~ wdg=1 bus=80479755001995.1.2.3 conn=delta kv=13.8
~ wdg=2 bus=80479755620042.1.2.3.0 conn=wye kv=0.38

new transformer.UNTRMT_5622535 phases=3 windings=2 %r=1.02 xhl=5.91 kva=75.0
~ wdg=1 bus=93308415001995.1.2.3 conn=delta kv=13.8
~ wdg=2 bus=93308415622535.1.2.3.0 conn=wye kv=0.38

new transformer.UNTRMT_5650040 phases=3 windings=2 %r=1.55 xhl=3.14 kva=75.0
~ wdg=1 bus=80479615001995.1.2.3 conn=delta kv=13.8
~ wdg=2 bus=80479615650040.1.2.3.0 conn=wye kv=0.38

! 6. Linhas de Baixa Tensao (BT)
new line.52876592 phases=3 bus1=80449965271846.1.2.3.0 bus2=80449955271846.1.2.3.0 r1=0.975 x1=0.47 length=0.045787 units=km normamps=152.0
new line.52880335 phases=3 bus1=80481995271302.1.2.3.0 bus2=80481645271302.1.2.3.0 r1=0.613 x1=0.45 length=0.007933 units=km normamps=203.0
new line.52880338 phases=3 bus1=80482185271302.1.2.3.0 bus2=80482115271302.1.2.3.0 r1=0.975 x1=0.47 length=0.028666 units=km normamps=152.0
new line.52880341 phases=3 bus1=80481315271302.1.2.3.0 bus2=80481305271302.1.2.3.0 r1=0.975 x1=0.47 length=0.040555 units=km normamps=152.0
new line.52880345 phases=3 bus1=80481355271302.1.2.3.0 bus2=80481345271302.1.2.3.0 r1=0.613 x1=0.45 length=0.033757 units=km normamps=203.0
new line.52880358 phases=3 bus1=80481645271302.1.2.3.0 bus2=80481625271302.1.2.3.0 r1=0.613 x1=0.45 length=0.026389 units=km normamps=203.0
new line.52880359 phases=3 bus1=80481635271302.1.2.3.0 bus2=80481655271302.1.2.3.0 r1=0.975 x1=0.47 length=0.020705 units=km normamps=152.0
new line.52880360 phases=3 bus1=80481655271302.1.2.3.0 bus2=80481665271302.1.2.3.0 r1=0.975 x1=0.47 length=0.028173 units=km normamps=152.0
new line.52880361 phases=1 bus1=80481415271302.3.0 bus2=80481495271302.3.0 r1=0.975 x1=0.47 length=0.019512 units=km normamps=152.0
new line.52880364 phases=3 bus1=80481855271304.1.2.3.0 bus2=80481845271304.1.2.3.0 r1=0.506 x1=0.1 length=0.011458 units=km normamps=157.0
new line.52880370 phases=3 bus1=80481855271305.1.2.3.0 bus2=80481865271305.1.2.3.0 r1=0.506 x1=0.1 length=0.018434 units=km normamps=157.0
new line.52880372 phases=3 bus1=80481895271305.1.2.3.0 bus2=80481885271305.1.2.3.0 r1=0.506 x1=0.1 length=0.015098 units=km normamps=157.0
new line.52880382 phases=3 bus1=80481865271305.1.2.3.0 bus2=80482875271305.1.2.3.0 r1=0.506 x1=0.1 length=0.027628 units=km normamps=157.0
new line.52880384 phases=3 bus1=80482895271305.1.2.3.0 bus2=80482885271305.1.2.3.0 r1=0.506 x1=0.1 length=0.016393 units=km normamps=157.0
new line.52880387 phases=3 bus1=80482955271305.1.2.3.0 bus2=80482835271305.1.2.3.0 r1=0.506 x1=0.1 length=0.044194 units=km normamps=157.0
new line.52880388 phases=3 bus1=80481925271306.1.2.3.0 bus2=80481935271306.1.2.3.0 r1=0.613 x1=0.45 length=0.025808 units=km normamps=203.0
new line.52880389 phases=3 bus1=80481935271306.1.2.3.0 bus2=80481955271306.1.2.3.0 r1=0.613 x1=0.45 length=0.011925 units=km normamps=203.0
new line.52880397 phases=3 bus1=80482085271306.1.2.3.0 bus2=80481925271306.1.2.3.0 r1=0.613 x1=0.45 length=0.0254 units=km normamps=203.0
new line.52880398 phases=1 bus1=80481795271306.1.0 bus2=80482085271306.1.0 r1=0.975 x1=0.47 length=0.045083 units=km normamps=152.0
new line.52880407 phases=1 bus1=80480505271306.1.0 bus2=80481795271306.1.0 r1=0.975 x1=0.47 length=0.041372 units=km normamps=152.0
new line.52880418 phases=3 bus1=80482745271307.1.2.3.0 bus2=80481155271307.1.2.3.0 r1=0.613 x1=0.45 length=0.012189 units=km normamps=203.0
new line.52880419 phases=3 bus1=80482775271307.1.2.3.0 bus2=80482795271307.1.2.3.0 r1=0.613 x1=0.45 length=0.02894 units=km normamps=203.0
new line.52880424 phases=3 bus1=80481155271307.1.2.3.0 bus2=80481165271307.1.2.3.0 r1=0.613 x1=0.45 length=0.025033 units=km normamps=203.0
new line.52880430 phases=1 bus1=80481205271307.2.0 bus2=80481235271307.2.0 r1=2.389 x1=0.52 length=0.01464 units=km normamps=90.0
new line.52880435 phases=3 bus1=80482595271307.1.2.3.0 bus2=80482615271307.1.2.3.0 r1=0.613 x1=0.45 length=0.011921 units=km normamps=203.0
new line.52880436 phases=3 bus1=80482615271307.1.2.3.0 bus2=80482605271307.1.2.3.0 r1=0.613 x1=0.45 length=0.028515 units=km normamps=203.0
new line.52880437 phases=3 bus1=80482635271307.1.2.3.0 bus2=80482615271307.1.2.3.0 r1=0.975 x1=0.47 length=0.009424 units=km normamps=152.0
new line.52880438 phases=3 bus1=80482615271307.1.2.3.0 bus2=80481195271307.1.2.3.0 r1=0.975 x1=0.47 length=0.011471 units=km normamps=152.0
new line.52880455 phases=3 bus1=80482865271310.1.2.3.0 bus2=80482555271310.1.2.3.0 r1=0.613 x1=0.45 length=0.021857 units=km normamps=203.0
new line.52880457 phases=3 bus1=80479675620042.1.2.3.0 bus2=80479665620042.1.2.3.0 r1=0.975 x1=0.47 length=0.023605 units=km normamps=152.0
new line.52880468 phases=3 bus1=80479745620042.1.2.3.0 bus2=80479755620042.1.2.3.0 r1=0.506 x1=0.1 length=0.035961 units=km normamps=157.0
new line.52880472 phases=3 bus1=80479795620042.1.2.3.0 bus2=80479805620042.1.2.3.0 r1=0.975 x1=0.47 length=0.010187 units=km normamps=152.0
new line.52880483 phases=3 bus1=80479975271311.1.2.3.0 bus2=80479985271311.1.2.3.0 r1=0.506 x1=0.1 length=0.021496 units=km normamps=157.0
new line.52880485 phases=3 bus1=80479995271311.1.2.3.0 bus2=80480005271311.1.2.3.0 r1=0.506 x1=0.1 length=0.024755 units=km normamps=157.0
new line.52880487 phases=3 bus1=80480015271311.1.2.3.0 bus2=80480025271311.1.2.3.0 r1=0.506 x1=0.1 length=0.020678 units=km normamps=157.0
new line.52880549 phases=3 bus1=80480165271314.1.2.3.0 bus2=80480155271314.1.2.3.0 r1=0.975 x1=0.47 length=0.024439 units=km normamps=152.0
new line.52880558 phases=3 bus1=80480225271314.1.2.3.0 bus2=80480245271314.1.2.3.0 r1=0.613 x1=0.45 length=0.027007 units=km normamps=203.0
new line.52880566 phases=3 bus1=80480315271315.1.2.3.0 bus2=80480325271315.1.2.3.0 r1=0.975 x1=0.47 length=0.02924 units=km normamps=152.0
new line.52880576 phases=3 bus1=80482515271318.1.2.3.0 bus2=80482485271318.1.2.3.0 r1=0.506 x1=0.1 length=0.01349 units=km normamps=157.0
new line.52880579 phases=3 bus1=80482505271318.1.2.3.0 bus2=80482515271318.1.2.3.0 r1=0.613 x1=0.45 length=0.016995 units=km normamps=203.0
new line.52880593 phases=3 bus1=80484245271319.1.2.3.0 bus2=80479545271319.1.2.3.0 r1=0.975 x1=0.47 length=0.017876 units=km normamps=152.0
new line.52880600 phases=3 bus1=80480635271321.1.2.3.0 bus2=80480625271321.1.2.3.0 r1=0.991 x1=0.1 length=0.033868 units=km normamps=100.0
new line.52880601 phases=3 bus1=80480645271321.1.2.3.0 bus2=80480635271321.1.2.3.0 r1=0.506 x1=0.1 length=0.014206 units=km normamps=157.0
new line.52880607 phases=3 bus1=80480725271321.1.2.3.0 bus2=80480715271321.1.2.3.0 r1=0.506 x1=0.1 length=0.02417 units=km normamps=157.0
new line.52880612 phases=3 bus1=80484335271323.1.2.3.0 bus2=80484195271323.1.2.3.0 r1=1.551 x1=0.49 length=0.024152 units=km normamps=114.0
new line.52880613 phases=3 bus1=80484335271323.1.2.3.0 bus2=80484185271323.1.2.3.0 r1=1.551 x1=0.49 length=0.032604 units=km normamps=114.0
new line.52880620 phases=3 bus1=80483525271325.1.2.3.0 bus2=80483515271325.1.2.3.0 r1=0.991 x1=0.1 length=0.030921 units=km normamps=100.0
new line.52880627 phases=3 bus1=80483185271326.1.2.3.0 bus2=80483175271326.1.2.3.0 r1=0.975 x1=0.47 length=0.028356 units=km normamps=152.0
new line.52880641 phases=3 bus1=80483335271326.1.2.3.0 bus2=80483325271326.1.2.3.0 r1=0.975 x1=0.47 length=0.029812 units=km normamps=152.0
new line.52880645 phases=3 bus1=80484295271326.1.2.3.0 bus2=80484285271326.1.2.3.0 r1=0.991 x1=0.1 length=0.026326 units=km normamps=100.0
new line.52880654 phases=3 bus1=80482225271328.1.2.3.0 bus2=80482235271328.1.2.3.0 r1=0.975 x1=0.47 length=0.02008 units=km normamps=152.0
new line.52880656 phases=3 bus1=80482285271328.1.2.3.0 bus2=80482295271328.1.2.3.0 r1=0.975 x1=0.47 length=0.025646 units=km normamps=152.0
new line.52880677 phases=3 bus1=80483795271328.1.2.3.0 bus2=80483805271328.1.2.3.0 r1=0.613 x1=0.45 length=0.03083 units=km normamps=203.0
new line.52880680 phases=3 bus1=80482425271329.1.2.3.0 bus2=80482415271329.1.2.3.0 r1=0.991 x1=0.1 length=0.03188 units=km normamps=100.0
new line.52880687 phases=3 bus1=80483925271329.1.2.3.0 bus2=80479525271329.1.2.3.0 r1=0.991 x1=0.1 length=0.020068 units=km normamps=100.0
new line.52880691 phases=3 bus1=80484135271329.1.2.3.0 bus2=80484125271329.1.2.3.0 r1=0.991 x1=0.1 length=0.029797 units=km normamps=100.0
new line.52880699 phases=3 bus1=80484015271330.1.2.3.0 bus2=80484005271330.1.2.3.0 r1=0.613 x1=0.45 length=0.023872 units=km normamps=203.0
new line.52880704 phases=3 bus1=80483635271330.1.2.3.0 bus2=80483655271330.1.2.3.0 r1=0.613 x1=0.45 length=0.011658 units=km normamps=203.0
new line.52880715 phases=3 bus1=80484035271331.1.2.3.0 bus2=80484045271331.1.2.3.0 r1=0.506 x1=0.1 length=0.039471 units=km normamps=157.0
new line.52880717 phases=3 bus1=80484045271331.1.2.3.0 bus2=80484095271331.1.2.3.0 r1=0.506 x1=0.1 length=0.032367 units=km normamps=157.0
new line.52886401 phases=3 bus1=80521265271846.1.2.3.0 bus2=80521275271846.1.2.3.0 r1=0.975 x1=0.47 length=0.028866 units=km normamps=152.0
new line.52886419 phases=3 bus1=80521315271846.1.2.3.0 bus2=80521325271846.1.2.3.0 r1=0.613 x1=0.45 length=0.021717 units=km normamps=203.0
new line.52886424 phases=3 bus1=80521365271846.1.2.3.0 bus2=80521385271846.1.2.3.0 r1=0.613 x1=0.45 length=0.028866 units=km normamps=203.0
new line.52886427 phases=3 bus1=80521405271846.1.2.3.0 bus2=80521415271846.1.2.3.0 r1=0.975 x1=0.47 length=0.029272 units=km normamps=152.0
new line.52886434 phases=3 bus1=80521455271846.1.2.3.0 bus2=80480105271846.1.2.3.0 r1=2.389 x1=0.52 length=0.029603 units=km normamps=90.0
new line.52886551 phases=3 bus1=80522505271879.1.2.3.0 bus2=80522495271879.1.2.3.0 r1=0.613 x1=0.45 length=0.023718 units=km normamps=203.0
new line.52886641 phases=3 bus1=80523935271854.1.2.3.0 bus2=80523945271854.1.2.3.0 r1=0.506 x1=0.1 length=0.026537 units=km normamps=157.0
new line.52886667 phases=3 bus1=80522155271859.1.2.3.0 bus2=80522165271859.1.2.3.0 r1=1.551 x1=0.49 length=0.012487 units=km normamps=114.0
new line.52886668 phases=3 bus1=80522165271859.1.2.3.0 bus2=80522175271859.1.2.3.0 r1=0.506 x1=0.1 length=0.037192 units=km normamps=157.0
new line.52886682 phases=3 bus1=80522385271878.1.2.3.0 bus2=80522395271878.1.2.3.0 r1=0.975 x1=0.47 length=0.014772 units=km normamps=152.0
new line.52886689 phases=3 bus1=80522445271878.1.2.3.0 bus2=80522455271878.1.2.3.0 r1=0.975 x1=0.47 length=0.030871 units=km normamps=152.0
new line.52886715 phases=3 bus1=80527665271883.1.2.3.0 bus2=80527655271883.1.2.3.0 r1=0.506 x1=0.1 length=0.034899 units=km normamps=157.0
new line.52886728 phases=3 bus1=80484205271884.1.2.3.0 bus2=80527545271884.1.2.3.0 r1=0.991 x1=0.1 length=0.009146 units=km normamps=100.0
new line.52886730 phases=3 bus1=80527555271884.1.2.3.0 bus2=80527565271884.1.2.3.0 r1=0.991 x1=0.1 length=0.027779 units=km normamps=100.0
new line.52886731 phases=3 bus1=80527565271884.1.2.3.0 bus2=80527575271884.1.2.3.0 r1=0.991 x1=0.1 length=0.012574 units=km normamps=100.0
new line.52886770 phases=3 bus1=80524585271888.1.2.3.0 bus2=80524595271888.1.2.3.0 r1=0.975 x1=0.47 length=0.00636 units=km normamps=152.0
new line.52886775 phases=3 bus1=80524635271888.1.2.3.0 bus2=95767175271888.1.2.3.0 r1=0.506 x1=0.1 length=0.009392 units=km normamps=157.0
...